/*--------------------------------*- C++ -*----------------------------------*\
| =========                 |                                                 |
| \\      /  F ield         | OpenFOAM: The Open Source CFD Toolbox           |
|  \\    /   O peration     | Version:  v2206                                 |
|   \\  /    A nd           | Website:  www.openfoam.com                      |
|    \\/     M anipulation  |                                                 |
\*---------------------------------------------------------------------------*/
FoamFile
{
    version     2.0;
    format      ascii;
    class       dictionary;
    object      dynamicMeshDict;
}
// * * * * * * * * * * * * * * * * * * * * * * * * * * * * * * * * * * * * * //

dynamicFvMesh   dynamicMultiDimRefineBalancedFvMesh;

enableBalancing     true;
allowableImbalance  0.10;

adaptCriteria
{
    type       fieldBounds;
    fieldName  PV;
    lowerBound 0.01;
    upperBound 0.05;
}

// How often to refine
refineInterval  100;

// Field to be refinement on
//field           magGradT;

// Refine field inbetween lower..upper
//lowerRefineLevel 1.0;
//upperRefineLevel 1.0e100;

// If value < unrefineLevel unrefine
//unrefineLevel   10;

// Have slower than 2:1 refinement
nBufferLayers   1;

// Refine cells only up to maxRefinement levels
maxRefinement   1;

// Stop refinement if maxCells reached
maxCells        20000000;

// Flux field and corresponding velocity field. Fluxes on changed
// faces get recalculated by interpolating the velocity. Use 'none'
// on surfaceScalarFields that do not need to be reinterpolated.
correctFluxes
(
    (phi none)
);

// Write the refinement level as a volScalarField
dumpLevel       true;


// ************************************************************************* //
