/*--------------------------------*- C++ -*----------------------------------*\
| =========                 |                                                 |
| \\      /  F ield         | OpenFOAM: The Open Source CFD Toolbox           |
|  \\    /   O peration     | Version:  2206                                  |
|   \\  /    A nd           | Website:  www.openfoam.com                      |
|    \\/     M anipulation  |                                                 |
\*---------------------------------------------------------------------------*/
FoamFile
{
    version     2.0;
    format      ascii;
    arch        "LSB;label=32;scalar=64";
    class       volScalarField;
    location    "0";
    object      h;
}
// * * * * * * * * * * * * * * * * * * * * * * * * * * * * * * * * * * * * * //

dimensions      [0 2 -2 0 0 0 0];

internalField   uniform INITIALENTHALPY; 

boundaryField
{
    inlet
    {
        type            lookUpEnthalpy;
        h0              $internalField;
        value           $internalField;
    }
    outlet
    {
        type            zeroGradient;
    }
    topIsothermalWall
    {
        type            lookUpEnthalpy;
        h0              $internalField;
        value           $internalField;
    }
    topAdiabaticWall
    {
        type            zeroGradient;
    }
    bottomIsothermalWall
    {
        type            lookUpEnthalpy;
        h0              $internalField;
        value           $internalField;
    }
    bottomAdiabaticWall
    {
        type            zeroGradient;
    }
    front
    {
        type            cyclic;
    }
    back
    {
        type            cyclic;
    }
}


// ************************************************************************* //
