/*--------------------------------*- C++ -*----------------------------------*\
| =========                 |                                                 |
| \\      /  F ield         | OpenFOAM: The Open Source CFD Toolbox           |
|  \\    /   O peration     | Version:  2206                                  |
|   \\  /    A nd           | Website:  www.openfoam.com                      |
|    \\/     M anipulation  |                                                 |
\*---------------------------------------------------------------------------*/
FoamFile
{
    version     2.0;
    format      ascii;
    class       volScalarField;
    location    "0";
    object      T;
}
// * * * * * * * * * * * * * * * * * * * * * * * * * * * * * * * * * * * * * //

dimensions      [0 0 0 1 0 0 0];

internalField   uniform INLETTEMPERATURE; 

boundaryField
{
    inlet
    {
        type            fixedValue;
        value           uniform INLETTEMPERATURE;
    }
    outlet
    {
        type            zeroGradient;
    }
    topIsothermalWall
    {
        type            fixedValue;
        value           uniform WALLTEMPERATURE;
    }
    topAdiabaticWall
    {
        type            zeroGradient;
    }
    bottomIsothermalWall
    {
        type            fixedValue;
        value           uniform WALLTEMPERATURE;
    }
    bottomAdiabaticWall
    {
        type            zeroGradient;
    }
    front
    {
        type            cyclic;
    }
    back
    {
        type            cyclic;
    }
}


// ************************************************************************* //
