/*--------------------------------*- C++ -*----------------------------------*\
| =========                 |                                                 |
| \\      /  F ield         | OpenFOAM: The Open Source CFD Toolbox           |
|  \\    /   O peration     | Version:  v2206                                 |
|   \\  /    A nd           | Website:  www.openfoam.com                      |
|    \\/     M anipulation  |                                                 |
\*---------------------------------------------------------------------------*/
FoamFile
{
    version     2.0;
    format      ascii;
    class       dictionary;
    object      setFieldsDict;
}
// * * * * * * * * * * * * * * * * * * * * * * * * * * * * * * * * * * * * * //

defaultFieldValues
(
    volScalarFieldValue PV INITIALPROGRESSVARIABLE
);

regions
(
    boxToCell
    {
        box (0.00875 0.0 0.0) (0.0525 0.0175 0.02625);
        fieldValues
        (
            volScalarFieldValue PV FINALPROGRESSVARIABLE
        );
    }
);


// ************************************************************************* //
